Version 4
SHEET 1 4920 3300
WIRE -768 976 -800 976
WIRE -576 976 -688 976
WIRE -272 976 -576 976
WIRE -576 1024 -576 976
WIRE -272 1024 -272 976
WIRE -576 1136 -576 1104
WIRE -352 1136 -576 1136
WIRE -272 1136 -272 1088
WIRE -576 1152 -576 1136
WIRE -576 1264 -576 1216
WIRE -352 1312 -352 1136
WIRE -192 1312 -352 1312
WIRE -576 1376 -576 1328
WIRE -192 1408 -192 1312
WIRE -96 1408 -192 1408
WIRE 32 1408 -16 1408
WIRE 80 1408 32 1408
WIRE 224 1408 160 1408
WIRE -576 1472 -576 1440
WIRE -192 1472 -192 1408
WIRE 32 1472 32 1408
WIRE -576 1568 -576 1536
WIRE -576 1664 -576 1632
WIRE -352 1664 -352 1312
WIRE -96 1664 -352 1664
WIRE 32 1664 -16 1664
WIRE 80 1664 32 1664
WIRE 224 1664 160 1664
WIRE 608 1728 544 1728
WIRE 912 1728 688 1728
WIRE 1152 1728 912 1728
WIRE 2544 1728 1232 1728
WIRE 2576 1728 2544 1728
WIRE 2688 1728 2656 1728
WIRE -576 1760 -576 1728
WIRE -352 1760 -352 1664
WIRE 32 1760 32 1664
WIRE -112 1808 -240 1808
WIRE 544 1808 544 1728
WIRE 1120 1824 1072 1824
WIRE 1440 1824 1120 1824
WIRE 1680 1824 1520 1824
WIRE 1968 1824 1680 1824
WIRE 2224 1824 1968 1824
WIRE 2384 1824 2224 1824
WIRE 2384 1872 2384 1824
WIRE 2544 1872 2544 1728
WIRE 2576 1872 2544 1872
WIRE 2688 1872 2688 1728
WIRE 2688 1872 2656 1872
WIRE -240 1888 -240 1808
WIRE 1120 1888 1120 1824
WIRE 1264 1888 1200 1888
WIRE 1408 1888 1264 1888
WIRE 1584 1888 1408 1888
WIRE 544 1904 544 1872
WIRE 1968 1904 1968 1824
WIRE 1264 1936 1264 1888
WIRE 1408 1936 1408 1888
WIRE 1680 1936 1680 1824
WIRE 2384 1968 2384 1936
WIRE 2224 1984 2224 1824
WIRE -112 2000 -240 2000
WIRE 1264 2016 1264 2000
WIRE 1408 2016 1408 2000
WIRE 1680 2016 1680 2000
WIRE 2544 2016 2544 1872
WIRE 2576 2016 2544 2016
WIRE 2688 2016 2688 1872
WIRE 2688 2016 2656 2016
WIRE 1856 2032 1840 2032
WIRE 1968 2032 1968 1984
WIRE 1968 2032 1920 2032
WIRE 2160 2032 1968 2032
WIRE -240 2048 -240 2000
WIRE 1840 2064 1840 2032
WIRE 1968 2064 1968 2032
WIRE 1840 2160 1840 2144
WIRE 1840 2160 1520 2160
WIRE 1968 2160 1968 2128
WIRE 1968 2160 1840 2160
WIRE 2224 2160 2224 2080
WIRE 2544 2160 2544 2016
WIRE 2544 2160 2224 2160
WIRE 2576 2160 2544 2160
WIRE 2688 2160 2688 2016
WIRE 2688 2160 2656 2160
WIRE 2800 2160 2688 2160
WIRE 912 2176 912 1728
WIRE 1424 2176 912 2176
WIRE -112 2192 -240 2192
WIRE 1552 2192 1520 2192
WIRE 1968 2192 1968 2160
WIRE 640 2208 480 2208
WIRE 1424 2208 704 2208
WIRE 480 2224 480 2208
WIRE 1584 2224 1584 1888
WIRE 1584 2224 1520 2224
WIRE 2224 2240 2224 2160
WIRE -240 2256 -240 2192
WIRE 1840 2288 1840 2160
WIRE 1856 2288 1840 2288
WIRE 1968 2288 1968 2256
WIRE 1968 2288 1920 2288
WIRE 2160 2288 1968 2288
WIRE 480 2336 480 2304
WIRE 1264 2336 1264 2304
WIRE 1408 2336 1408 2304
WIRE 1680 2336 1680 2304
WIRE 1968 2336 1968 2288
WIRE 2384 2384 2384 2352
WIRE 1264 2432 1264 2400
WIRE 1264 2432 1200 2432
WIRE 1408 2432 1408 2400
WIRE 1408 2432 1264 2432
WIRE 1552 2432 1552 2192
WIRE 1552 2432 1408 2432
WIRE 1120 2496 1120 2432
WIRE 1120 2496 1072 2496
WIRE 1440 2496 1120 2496
WIRE 1680 2496 1680 2400
WIRE 1680 2496 1520 2496
WIRE 1968 2496 1968 2416
WIRE 1968 2496 1680 2496
WIRE 2224 2496 2224 2336
WIRE 2224 2496 1968 2496
WIRE 2384 2496 2384 2448
WIRE 2384 2496 2224 2496
FLAG -112 1808 Vp
IOPIN -112 1808 BiDir
FLAG -112 2000 Vn
IOPIN -112 2000 BiDir
FLAG -112 2192 Vd
IOPIN -112 2192 BiDir
FLAG -240 1968 0
FLAG -240 2128 0
FLAG -240 2336 0
FLAG 480 2336 0
FLAG 1072 1824 Vp
IOPIN 1072 1824 BiDir
FLAG 1408 2016 0
FLAG 1264 2016 0
FLAG 544 1904 0
FLAG 1072 2496 Vn
IOPIN 1072 2496 BiDir
FLAG 1408 2304 0
FLAG 1264 2304 0
FLAG 1680 2304 0
FLAG 1680 2016 0
FLAG 2384 1968 0
FLAG 2384 2352 0
FLAG 2800 2160 0
FLAG -800 976 Vp
IOPIN -800 976 BiDir
FLAG -272 1136 0
FLAG 32 1472 0
FLAG -352 1760 0
FLAG -576 1760 0
FLAG 32 1760 0
FLAG -192 1472 0
FLAG 224 1408 bias1
IOPIN 224 1408 BiDir
FLAG 224 1664 bias2
IOPIN 224 1664 BiDir
SYMBOL voltage -240 1872 R0
WINDOW 123 0 0 Left 0
WINDOW 39 0 0 Left 0
SYMATTR InstName V3
SYMATTR Value 8
SYMBOL voltage -240 2032 R0
WINDOW 123 0 0 Left 0
WINDOW 39 0 0 Left 0
SYMATTR InstName V4
SYMATTR Value -4
SYMBOL voltage -240 2240 R0
WINDOW 123 0 0 Left 0
WINDOW 39 0 0 Left 0
SYMATTR InstName V5
SYMATTR Value 5
SYMBOL voltage 480 2208 R0
WINDOW 123 0 0 Left 0
WINDOW 39 0 0 Left 0
SYMATTR InstName V7
SYMATTR Value SINE(0V 10V 1MEG 0.5u)
SYMBOL cap 704 2192 R90
WINDOW 0 0 32 VBottom 2
WINDOW 3 32 32 VTop 2
SYMATTR InstName C32
SYMATTR Value 0.1µ
SYMBOL cap 528 1808 R0
SYMATTR InstName C23
SYMATTR Value 0.1µ
SYMBOL cap 1248 1936 R0
SYMATTR InstName C29
SYMATTR Value 10µ
SYMBOL cap 1392 1936 R0
SYMATTR InstName C27
SYMATTR Value 0.1µ
SYMBOL cap 1248 2336 R0
SYMATTR InstName C37
SYMATTR Value 10µ
SYMBOL cap 1392 2336 R0
SYMATTR InstName C39
SYMATTR Value 0.1µ
SYMBOL cap 1664 1936 R0
SYMATTR InstName C24
SYMATTR Value 0.1µ
SYMBOL cap 1664 2336 R0
SYMATTR InstName C43
SYMATTR Value 0.1µ
SYMBOL cap 1920 2016 R90
WINDOW 0 0 32 VBottom 2
WINDOW 3 32 32 VTop 2
SYMATTR InstName C30
SYMATTR Value 0.1µ
SYMBOL cap 1920 2272 R90
WINDOW 0 0 32 VBottom 2
WINDOW 3 32 32 VTop 2
SYMATTR InstName C35
SYMATTR Value 0.1µ
SYMBOL cap 2368 1872 R0
SYMATTR InstName C26
SYMATTR Value 10µ
SYMBOL cap 2368 2384 R0
SYMATTR InstName C40
SYMATTR Value 10µ
SYMBOL res 1952 1888 R0
SYMATTR InstName R38
SYMATTR Value 10k
SYMBOL res 1952 2320 R0
SYMATTR InstName R53
SYMATTR Value 10k
SYMBOL res 1536 2480 R90
WINDOW 0 0 56 VBottom 2
WINDOW 3 32 56 VTop 2
SYMATTR InstName R55
SYMATTR Value 2R2
SYMBOL res 1216 2416 R90
WINDOW 0 0 56 VBottom 2
WINDOW 3 32 56 VTop 2
SYMATTR InstName R52
SYMATTR Value 2R2
SYMBOL res 1216 1872 R90
WINDOW 0 0 56 VBottom 2
WINDOW 3 32 56 VTop 2
SYMATTR InstName R33
SYMATTR Value 2R2
SYMBOL res 704 1712 R90
WINDOW 0 0 56 VBottom 2
WINDOW 3 32 56 VTop 2
SYMATTR InstName R27
SYMATTR Value 470
SYMBOL res 1248 1712 R90
WINDOW 0 0 56 VBottom 2
WINDOW 3 32 56 VTop 2
SYMATTR InstName R28
SYMATTR Value 470
SYMBOL res 1536 1808 R90
WINDOW 0 0 56 VBottom 2
WINDOW 3 32 56 VTop 2
SYMATTR InstName R31
SYMATTR Value 2R2
SYMBOL diode 1952 2064 R0
SYMATTR InstName D6.1
SYMATTR Value BAT54XV2T1G
SYMBOL diode 1952 2192 R0
SYMATTR InstName D6.2
SYMATTR Value BAT54XV2T1G
SYMBOL npn 2160 1984 R0
SYMATTR InstName Q8
SYMATTR Value BD139
SYMBOL pnp 2160 2240 R0
SYMATTR InstName Q10
SYMATTR Value BD140
SYMBOL res 2672 1712 R90
WINDOW 0 0 56 VBottom 2
WINDOW 3 32 56 VTop 2
SYMATTR InstName R29
SYMATTR Value 39
SYMBOL res 2672 1856 R90
WINDOW 0 0 56 VBottom 2
WINDOW 3 37 63 VTop 2
SYMATTR InstName R34
SYMATTR Value 39
SYMBOL res 2672 2000 R90
WINDOW 0 0 56 VBottom 2
WINDOW 3 32 56 VTop 2
SYMATTR InstName R40
SYMATTR Value 39
SYMBOL res 2672 2144 R90
WINDOW 0 0 56 VBottom 2
WINDOW 3 32 56 VTop 2
SYMATTR InstName R43
SYMATTR Value 39
SYMBOL AutoGenerated\\AD8017 1472 2192 M180
SYMATTR InstName U2
SYMBOL res 1824 2048 R0
SYMATTR InstName R1extra
SYMATTR Value 1Meg
SYMBOL res -672 960 R90
WINDOW 0 0 56 VBottom 2
WINDOW 3 32 56 VTop 2
SYMATTR InstName R1
SYMATTR Value 4k7
SYMBOL res 0 1392 R90
WINDOW 0 0 56 VBottom 2
WINDOW 3 32 56 VTop 2
SYMATTR InstName R14
SYMATTR Value 120
SYMBOL res 176 1392 R90
WINDOW 0 0 56 VBottom 2
WINDOW 3 32 56 VTop 2
SYMATTR InstName R15
SYMATTR Value 4k7
SYMBOL res 0 1648 R90
WINDOW 0 0 56 VBottom 2
WINDOW 3 32 56 VTop 2
SYMATTR InstName R17
SYMATTR Value 120
SYMBOL res 176 1648 R90
WINDOW 0 0 56 VBottom 2
WINDOW 3 32 56 VTop 2
SYMATTR InstName R18
SYMATTR Value 4k7
SYMBOL res -592 1008 R0
SYMATTR InstName R13
SYMATTR Value 120
SYMBOL cap -288 1024 R0
SYMATTR InstName C1
SYMATTR Value 0.1µ
SYMBOL diode -592 1152 R0
SYMATTR InstName D9.1
SYMATTR Value BAT54XV2T1G
SYMBOL diode -592 1264 R0
SYMATTR InstName D9.2
SYMATTR Value BAT54XV2T1G
SYMBOL diode -592 1376 R0
SYMATTR InstName D2.1
SYMATTR Value BAT54XV2T1G
SYMBOL diode -592 1472 R0
SYMATTR InstName D2.2
SYMATTR Value BAT54XV2T1G
SYMBOL diode -592 1568 R0
SYMATTR InstName D4.1
SYMATTR Value BAT54XV2T1G
SYMBOL diode -592 1664 R0
SYMATTR InstName D4.2
SYMATTR Value BAT54XV2T1G
TEXT 464 1512 Left 2 !.tran 5us
TEXT 464 1472 Left 2 !.lib C:\\Users\\msaya\\Documents\\Github\\Amplifier\\libs\\Bib.LIB
