Version 4
SHEET 1 7116 2452
WIRE 416 -272 336 -272
WIRE 592 -272 416 -272
WIRE 704 -272 592 -272
WIRE 992 -272 704 -272
WIRE 416 -224 416 -272
WIRE 592 -208 592 -272
WIRE 336 -192 336 -272
WIRE 528 -160 496 -160
WIRE 416 -128 416 -144
WIRE 496 -128 496 -160
WIRE 496 -128 416 -128
WIRE 336 -64 336 -112
WIRE 992 -64 992 -272
WIRE 416 -48 416 -128
WIRE 944 -48 416 -48
WIRE 416 48 416 -48
WIRE 592 48 592 -112
WIRE 288 96 208 96
WIRE 352 96 288 96
WIRE 992 96 992 32
WIRE 992 96 656 96
WIRE 992 112 992 96
WIRE 1280 112 992 112
WIRE 1392 112 1280 112
WIRE 208 128 208 96
WIRE 512 144 416 144
WIRE 592 144 512 144
WIRE 512 160 512 144
WIRE 208 224 208 208
WIRE 992 240 992 112
WIRE 288 320 288 96
WIRE 288 320 272 320
WIRE 944 320 688 320
WIRE 688 336 688 320
WIRE 272 384 272 320
WIRE 624 384 272 384
WIRE 688 448 688 432
WIRE 992 448 992 336
FLAG 336 -64 0
FLAG 704 -272 Vsup
FLAG 208 224 0
FLAG 1392 112 out
IOPIN 1392 112 BiDir
FLAG 1280 112 Vamp
FLAG 992 448 0
FLAG 512 240 0
FLAG 688 448 0
SYMBOL voltage 336 -208 R0
WINDOW 123 0 0 Left 0
WINDOW 39 0 0 Left 0
SYMATTR InstName V1
SYMATTR Value 56
SYMBOL pmos 944 32 M180
SYMATTR InstName Q2
SYMATTR Value IXTH10P50
SYMBOL nmos 944 240 R0
SYMATTR InstName Q5A
SYMATTR Value BSC340N08NS3
SYMBOL voltage 208 112 R0
WINDOW 123 0 0 Left 0
WINDOW 39 0 0 Left 0
WINDOW 3 -444 -15 Left 2
SYMATTR Value PULSE(0V 40V 0.5u 0 0 0.5u 1u 3)
SYMATTR InstName V2
SYMBOL npn 352 48 R0
SYMATTR InstName Q1
SYMATTR Value BD139
SYMBOL npn 656 48 M0
SYMATTR InstName Q3
SYMATTR Value BD139
SYMBOL res 400 -240 R0
SYMATTR InstName R1
SYMATTR Value 330
SYMBOL res 496 144 R0
SYMATTR InstName R2
SYMATTR Value 120
SYMBOL npn 528 -208 R0
SYMATTR InstName Q4
SYMATTR Value BD139
SYMBOL npn 624 336 R0
SYMATTR InstName Q5
SYMATTR Value BD139
TEXT 456 -424 Left 2 !.tran 4us
TEXT 456 -464 Left 2 !.lib C:\\Users\\msaya\\Documents\\Github\\Amplifier\\libs\\Bib.LIB
TEXT 880 -64 Left 2 ;g
TEXT 888 304 Left 2 ;g
TEXT 976 72 Left 2 ;s
TEXT 976 -128 Left 2 ;d
