Version 4
SHEET 1 7116 2452
WIRE 704 -272 560 -272
WIRE 992 -272 704 -272
WIRE 560 -192 560 -272
WIRE 560 -64 560 -112
WIRE 992 -64 992 -272
WIRE 944 -48 576 -48
WIRE 576 80 576 -48
WIRE 576 80 496 80
WIRE 496 112 496 80
WIRE 992 112 992 32
WIRE 1280 112 992 112
WIRE 1392 112 1280 112
WIRE 496 208 496 192
WIRE 992 240 992 112
WIRE 576 320 576 80
WIRE 944 320 576 320
WIRE 992 448 992 336
FLAG 560 -64 0
FLAG 704 -272 Vsup
FLAG 496 208 0
FLAG 1392 112 out
IOPIN 1392 112 BiDir
FLAG 1280 112 Vamp
FLAG 992 448 0
SYMBOL voltage 560 -208 R0
WINDOW 123 0 0 Left 0
WINDOW 39 0 0 Left 0
SYMATTR InstName V1
SYMATTR Value 56
SYMBOL pmos 944 32 M180
SYMATTR InstName Q2
SYMATTR Value IXTH10P50
SYMBOL nmos 944 240 R0
SYMATTR InstName Q5A
SYMATTR Value BSC340N08NS3
SYMBOL voltage 496 96 R0
WINDOW 123 0 0 Left 0
WINDOW 39 0 0 Left 0
WINDOW 3 -444 -15 Left 2
SYMATTR Value PULSE(0V 40V 0.5u 0 0 0.5u 1u 3)
SYMATTR InstName V2
TEXT 456 -424 Left 2 !.tran 4us
TEXT 456 -464 Left 2 !.lib C:\\Users\\msaya\\Documents\\Github\\Amplifier\\libs\\Bib.LIB
TEXT 880 -64 Left 2 ;g
TEXT 888 304 Left 2 ;g
TEXT 976 72 Left 2 ;s
TEXT 976 -128 Left 2 ;d
