Version 4
SHEET 1 7116 2452
WIRE 192 -416 0 -416
WIRE 0 -336 0 -416
WIRE 192 -272 192 -416
WIRE 272 -272 192 -272
WIRE 384 -272 272 -272
WIRE 528 -272 384 -272
WIRE 992 -272 528 -272
WIRE 1184 -272 992 -272
WIRE 1296 -272 1184 -272
WIRE 1408 -272 1296 -272
WIRE 1504 -272 1408 -272
WIRE 1600 -272 1504 -272
WIRE 1680 -272 1600 -272
WIRE 1776 -272 1680 -272
WIRE 1888 -272 1776 -272
WIRE 1984 -272 1888 -272
WIRE 2080 -272 1984 -272
WIRE 192 -224 192 -272
WIRE 0 -208 0 -256
WIRE 384 -160 384 -272
WIRE 1184 -144 1184 -192
WIRE 1296 -144 1296 -192
WIRE 1408 -144 1408 -192
WIRE 1504 -144 1504 -192
WIRE 1600 -144 1600 -192
WIRE 1680 -144 1680 -192
WIRE 1776 -144 1776 -192
WIRE 1888 -144 1888 -192
WIRE 1984 -144 1984 -192
WIRE 2080 -144 2080 -192
WIRE 192 -112 192 -144
WIRE 320 -112 192 -112
WIRE 1296 -80 1184 -80
WIRE 1408 -80 1296 -80
WIRE 1504 -80 1408 -80
WIRE 1600 -80 1504 -80
WIRE 1680 -80 1600 -80
WIRE 1776 -80 1680 -80
WIRE 1888 -80 1776 -80
WIRE 1984 -80 1888 -80
WIRE 2064 -80 1984 -80
WIRE 2080 -80 2064 -80
WIRE 992 -64 992 -272
WIRE 192 16 192 -112
WIRE 240 16 192 16
WIRE 384 16 384 -64
WIRE 384 16 304 16
WIRE 944 16 944 -48
WIRE 944 16 384 16
WIRE 192 128 192 16
WIRE 528 128 528 -272
WIRE 128 176 -48 176
WIRE 640 176 592 176
WIRE 768 176 640 176
WIRE 832 176 768 176
WIRE 992 176 992 32
WIRE 992 176 912 176
WIRE -48 208 -48 176
WIRE 352 224 192 224
WIRE 528 224 352 224
WIRE 768 256 768 176
WIRE 832 256 768 256
WIRE 992 256 992 176
WIRE 992 256 896 256
WIRE 352 288 352 224
WIRE 640 288 640 176
WIRE 768 288 768 256
WIRE -48 304 -48 288
WIRE 2000 400 1792 400
WIRE 2064 400 2048 400
WIRE 2192 400 2064 400
WIRE 2304 400 2192 400
WIRE 2416 400 2304 400
WIRE 2576 400 2416 400
WIRE 992 416 992 256
WIRE 1168 416 992 416
WIRE 1280 416 1168 416
WIRE 1392 416 1280 416
WIRE 352 432 352 368
WIRE 640 432 640 368
WIRE 768 432 768 352
WIRE 1792 432 1792 400
WIRE 1168 528 1168 416
WIRE 624 544 496 544
WIRE 752 544 752 528
WIRE 752 544 624 544
WIRE 992 544 992 416
WIRE 1792 560 1792 512
WIRE 624 624 496 624
WIRE 704 624 624 624
WIRE 752 624 704 624
WIRE 864 624 752 624
WIRE 944 624 864 624
WIRE 1168 656 1168 608
WIRE 704 688 704 624
WIRE 864 736 864 624
WIRE 128 784 128 176
WIRE 288 784 128 784
WIRE 704 784 704 752
WIRE 704 784 368 784
WIRE 800 784 704 784
WIRE 864 864 864 832
WIRE 992 864 992 640
WIRE 1168 864 1168 720
FLAG 768 432 0
FLAG 640 432 0
FLAG 352 432 0
FLAG 0 -208 0
FLAG 1168 864 0
FLAG 864 864 0
FLAG 272 -272 Vsup
FLAG 2416 464 0
FLAG 2304 464 0
FLAG 2192 464 0
FLAG 2576 400 Vp
IOPIN 2576 400 BiDir
FLAG 1792 560 0
FLAG -48 304 0
FLAG 1392 416 out
IOPIN 1392 416 BiDir
FLAG 1280 416 Vamp
FLAG 2064 -80 0
FLAG 992 864 0
FLAG 752 528 Vp
IOPIN 752 528 BiDir
SYMBOL voltage 0 -352 R0
WINDOW 123 0 0 Left 0
WINDOW 39 0 0 Left 0
SYMATTR InstName V1
SYMATTR Value 56
SYMBOL res 176 -240 R0
SYMATTR InstName R2
SYMATTR Value 330
SYMATTR SpiceLine pwr=0.5
SYMBOL pmos 944 32 M180
SYMATTR InstName Q2
SYMATTR Value IXTH10P50
SYMBOL nmos 944 544 R0
SYMATTR InstName Q5A
SYMATTR Value BSC340N08NS3
SYMBOL res 1168 -288 R0
SYMATTR InstName R3
SYMATTR Value 2.2
SYMBOL res 1280 -288 R0
SYMATTR InstName R4
SYMATTR Value 2.2
SYMBOL res 1392 -288 R0
SYMATTR InstName R5
SYMATTR Value 2.2
SYMBOL res 1488 -288 R0
SYMATTR InstName R6
SYMATTR Value 2.2
SYMBOL res 1584 -288 R0
SYMATTR InstName R7
SYMATTR Value 2.2
SYMBOL res 1664 -288 R0
SYMATTR InstName R8
SYMATTR Value 2.2
SYMBOL res 1760 -288 R0
SYMATTR InstName R9
SYMATTR Value 2.2
SYMBOL res 1872 -288 R0
SYMATTR InstName R10
SYMATTR Value 2.2
SYMBOL res 1968 -288 R0
SYMATTR InstName R11
SYMATTR Value 2.2
SYMBOL res 2064 -288 R0
SYMATTR InstName R12
SYMATTR Value 2.2
SYMBOL cap 1168 -144 R0
SYMATTR InstName C2
SYMATTR Value 0.1µ
SYMBOL cap 1280 -144 R0
SYMATTR InstName C3
SYMATTR Value 0.1µ
SYMBOL cap 1392 -144 R0
SYMATTR InstName C4
SYMATTR Value 0.1µ
SYMBOL cap 1488 -144 R0
SYMATTR InstName C5
SYMATTR Value 0.1µ
SYMBOL cap 1584 -144 R0
SYMATTR InstName C6
SYMATTR Value 0.1µ
SYMBOL cap 1664 -144 R0
SYMATTR InstName C7
SYMATTR Value 0.1µ
SYMBOL cap 1760 -144 R0
SYMATTR InstName C8
SYMATTR Value 0.1µ
SYMBOL cap 1872 -144 R0
SYMATTR InstName C9
SYMATTR Value 0.1µ
SYMBOL cap 1968 -144 R0
SYMATTR InstName C10
SYMATTR Value 0.1µ
SYMBOL cap 2064 -144 R0
SYMATTR InstName C11
SYMATTR Value 0.1µ
SYMBOL res 928 160 R90
WINDOW 0 0 56 VBottom 2
WINDOW 3 32 56 VTop 2
SYMATTR InstName R16
SYMATTR Value 4700
SYMATTR SpiceLine pwr=1
SYMBOL cap 896 240 R90
WINDOW 0 0 32 VBottom 2
WINDOW 3 32 32 VTop 2
SYMATTR InstName C13
SYMATTR Value 68p
SYMBOL diode 784 352 R180
WINDOW 0 24 64 Left 2
WINDOW 3 -50 0 Left 2
SYMATTR InstName D3
SYMATTR Value ES1D
SYMBOL diode 720 752 R180
WINDOW 0 24 64 Left 2
WINDOW 3 24 0 Left 2
SYMATTR InstName D8
SYMATTR Value BAT54XV2T1G
SYMBOL res 480 528 R0
SYMATTR InstName R58
SYMATTR Value 220
SYMATTR SpiceLine pwr=0.5
SYMBOL res 608 528 R0
SYMATTR InstName R59
SYMATTR Value 220
SYMATTR SpiceLine pwr=0.5
SYMBOL res 736 528 R0
SYMATTR InstName R22
SYMATTR Value 220
SYMATTR SpiceLine pwr=0.5
SYMBOL res 384 768 R90
WINDOW 0 0 56 VBottom 2
WINDOW 3 32 56 VTop 2
SYMATTR InstName R25
SYMATTR Value 4700
SYMBOL res 336 272 R0
SYMATTR InstName R19
SYMATTR Value 120
SYMBOL res 1152 512 R0
SYMATTR InstName R23
SYMATTR Value 2.2
SYMBOL res 624 272 R0
SYMATTR InstName R20
SYMATTR Value 510
SYMATTR SpiceLine pwr=0.5
SYMBOL cap 1152 656 R0
SYMATTR InstName C18
SYMATTR Value 1n
SYMBOL npn 320 -160 R0
SYMATTR InstName Q1
SYMATTR Value BD139
SYMBOL npn 128 128 R0
SYMATTR InstName Q4
SYMATTR Value BD139
SYMBOL npn 800 736 R0
SYMATTR InstName Q6
SYMATTR Value BD139
SYMBOL diode 304 0 R90
WINDOW 0 0 32 VBottom 2
WINDOW 3 41 27 VTop 2
SYMATTR InstName D1
SYMATTR Value BAT54XV2T1G
SYMBOL cap 2400 400 R0
SYMATTR InstName C47
SYMATTR Value 10µ
SYMBOL cap 2288 400 R0
SYMATTR InstName C46
SYMATTR Value 10µ
SYMBOL cap 2176 400 R0
SYMATTR InstName C45
SYMATTR Value 10µ
SYMBOL FerriteBead 2032 400 R90
WINDOW 0 -16 0 VBottom 2
SYMATTR InstName FB1
SYMATTR Value 380n
SYMATTR SpiceLine Ipk=2.5 Rser=0.0301 Rpar=198 Cpar=1.1p mfg="Würth Elektronik" pn="782853121 WE-CBA 0805"
SYMBOL voltage -48 192 R0
WINDOW 123 0 0 Left 0
WINDOW 39 0 0 Left 0
WINDOW 3 -240 -45 Left 2
SYMATTR Value PULSE(0V 40V 0.5u 0 0 0.5u 1u 3)
SYMATTR InstName V2
SYMBOL voltage 1792 416 R0
WINDOW 123 0 0 Left 0
WINDOW 39 0 0 Left 0
SYMATTR InstName Vp
SYMATTR Value 8
SYMBOL npn 592 128 M0
SYMATTR InstName Q3
SYMATTR Value BD139
TEXT 232 -320 Left 2 !.tran 4us
TEXT 232 -360 Left 2 !.lib C:\\Users\\msaya\\Documents\\Github\\Amplifier\\libs\\Bib.LIB
