Version 4
SHEET 1 4920 3556
WIRE -2432 -912 -2624 -912
WIRE -2624 -832 -2624 -912
WIRE -2432 -768 -2432 -912
WIRE -2352 -768 -2432 -768
WIRE -2272 -768 -2352 -768
WIRE -1632 -768 -2272 -768
WIRE -1440 -768 -1632 -768
WIRE -1328 -768 -1440 -768
WIRE -1216 -768 -1328 -768
WIRE -1120 -768 -1216 -768
WIRE -1024 -768 -1120 -768
WIRE -944 -768 -1024 -768
WIRE -848 -768 -944 -768
WIRE -736 -768 -848 -768
WIRE -640 -768 -736 -768
WIRE -544 -768 -640 -768
WIRE -2432 -736 -2432 -768
WIRE -2624 -704 -2624 -752
WIRE -1440 -640 -1440 -688
WIRE -1328 -640 -1328 -688
WIRE -1216 -640 -1216 -688
WIRE -1120 -640 -1120 -688
WIRE -1024 -640 -1024 -688
WIRE -944 -640 -944 -688
WIRE -848 -640 -848 -688
WIRE -736 -640 -736 -688
WIRE -640 -640 -640 -688
WIRE -544 -640 -544 -688
WIRE -2272 -624 -2272 -768
WIRE -2432 -576 -2432 -656
WIRE -2336 -576 -2432 -576
WIRE -1328 -576 -1440 -576
WIRE -1216 -576 -1328 -576
WIRE -1120 -576 -1216 -576
WIRE -1024 -576 -1120 -576
WIRE -944 -576 -1024 -576
WIRE -848 -576 -944 -576
WIRE -736 -576 -848 -576
WIRE -640 -576 -736 -576
WIRE -576 -576 -640 -576
WIRE -544 -576 -576 -576
WIRE -1632 -496 -1632 -768
WIRE -2432 -480 -2432 -576
WIRE -2400 -480 -2432 -480
WIRE -2272 -480 -2272 -528
WIRE -2272 -480 -2336 -480
WIRE -1680 -480 -2272 -480
WIRE -2432 -368 -2432 -480
WIRE -2576 -320 -2672 -320
WIRE -2496 -320 -2576 -320
WIRE -2672 -288 -2672 -320
WIRE -2272 -272 -2432 -272
WIRE -2272 -208 -2272 -272
WIRE -2672 -192 -2672 -208
WIRE -1632 -80 -1632 -400
WIRE -1456 -80 -1632 -80
WIRE -1344 -80 -1456 -80
WIRE -1232 -80 -1344 -80
WIRE -2272 -64 -2272 -128
WIRE -1232 0 -1232 -80
WIRE -1456 32 -1456 -80
WIRE -2000 48 -2128 48
WIRE -1872 48 -1872 -64
WIRE -1872 48 -2000 48
WIRE -1632 48 -1632 -80
WIRE -1232 96 -1232 80
WIRE -2000 128 -2128 128
WIRE -1920 128 -2000 128
WIRE -1872 128 -1920 128
WIRE -1760 128 -1872 128
WIRE -1680 128 -1760 128
WIRE -1456 160 -1456 112
WIRE -1920 192 -1920 128
WIRE -1760 240 -1760 128
WIRE -2496 288 -2496 -320
WIRE -2336 288 -2496 288
WIRE -1920 288 -1920 256
WIRE -1920 288 -2256 288
WIRE -1824 288 -1920 288
WIRE -1760 368 -1760 336
WIRE -1632 368 -1632 144
WIRE -1456 368 -1456 224
WIRE 1040 896 976 896
WIRE 1344 896 1120 896
WIRE 1584 896 1344 896
WIRE 2976 896 1664 896
WIRE 3008 896 2976 896
WIRE 3120 896 3088 896
WIRE 976 976 976 896
WIRE 1552 992 1504 992
WIRE 1872 992 1552 992
WIRE 2112 992 1952 992
WIRE 2400 992 2112 992
WIRE 2656 992 2400 992
WIRE 2816 992 2656 992
WIRE 2816 1040 2816 992
WIRE 2976 1040 2976 896
WIRE 3008 1040 2976 1040
WIRE 3120 1040 3120 896
WIRE 3120 1040 3088 1040
WIRE 1552 1056 1552 992
WIRE 1696 1056 1632 1056
WIRE 1840 1056 1696 1056
WIRE 2016 1056 1840 1056
WIRE 976 1072 976 1040
WIRE 2400 1072 2400 992
WIRE 1696 1104 1696 1056
WIRE 1840 1104 1840 1056
WIRE 2112 1104 2112 992
WIRE 2816 1136 2816 1104
WIRE 2656 1152 2656 992
WIRE 1696 1184 1696 1168
WIRE 1840 1184 1840 1168
WIRE 2112 1184 2112 1168
WIRE 2976 1184 2976 1040
WIRE 3008 1184 2976 1184
WIRE 3120 1184 3120 1040
WIRE 3120 1184 3088 1184
WIRE 2288 1200 2272 1200
WIRE 2400 1200 2400 1152
WIRE 2400 1200 2352 1200
WIRE 2592 1200 2400 1200
WIRE 2016 1216 2016 1056
WIRE 2272 1232 2272 1200
WIRE 2400 1232 2400 1200
WIRE 2272 1328 2272 1312
WIRE 2272 1328 1952 1328
WIRE 2400 1328 2400 1296
WIRE 2400 1328 2272 1328
WIRE 2656 1328 2656 1248
WIRE 2976 1328 2976 1184
WIRE 2976 1328 2656 1328
WIRE 3008 1328 2976 1328
WIRE 3120 1328 3120 1184
WIRE 3120 1328 3088 1328
WIRE 3232 1328 3120 1328
WIRE 1344 1344 1344 896
WIRE 1856 1344 1344 1344
WIRE 1984 1360 1952 1360
WIRE 2400 1360 2400 1328
WIRE 1072 1376 640 1376
WIRE 1856 1376 1136 1376
WIRE 2016 1392 2016 1216
WIRE 2016 1392 1952 1392
WIRE 2656 1408 2656 1328
WIRE -2160 1456 -2288 1456
WIRE 2272 1456 2272 1328
WIRE 2288 1456 2272 1456
WIRE 2400 1456 2400 1424
WIRE 2400 1456 2352 1456
WIRE 2592 1456 2400 1456
WIRE 1696 1504 1696 1472
WIRE 1840 1504 1840 1472
WIRE 1984 1504 1984 1360
WIRE 2112 1504 2112 1472
WIRE 2400 1504 2400 1456
WIRE -2288 1536 -2288 1456
WIRE 2816 1552 2816 1520
WIRE 1696 1600 1696 1568
WIRE 1696 1600 1632 1600
WIRE 1840 1600 1840 1568
WIRE 1840 1600 1696 1600
WIRE 1984 1600 1984 1504
WIRE 1984 1600 1840 1600
WIRE -2160 1648 -2288 1648
WIRE 1552 1664 1552 1600
WIRE 1552 1664 1504 1664
WIRE 1872 1664 1552 1664
WIRE 2112 1664 2112 1568
WIRE 2112 1664 1952 1664
WIRE 2400 1664 2400 1584
WIRE 2400 1664 2112 1664
WIRE 2656 1664 2656 1504
WIRE 2656 1664 2400 1664
WIRE 2816 1664 2816 1616
WIRE 2816 1664 2656 1664
WIRE -2288 1696 -2288 1648
WIRE -2160 1840 -2288 1840
WIRE -992 1872 -1008 1872
WIRE -880 1872 -992 1872
WIRE -2288 1904 -2288 1840
WIRE -880 1904 -880 1872
WIRE -1520 2096 -1584 2096
WIRE -1424 2096 -1456 2096
WIRE -1392 2096 -1424 2096
WIRE -1232 2096 -1328 2096
WIRE -1040 2192 -1152 2192
WIRE -1424 2208 -1424 2096
WIRE -1184 2208 -1424 2208
WIRE -992 2208 -992 1872
WIRE -976 2208 -992 2208
WIRE -608 2208 -880 2208
WIRE -1040 2240 -1040 2192
WIRE -976 2240 -1040 2240
WIRE -368 2240 -880 2240
WIRE 640 2240 640 1376
WIRE 640 2240 -368 2240
WIRE -1616 2272 -1728 2272
WIRE -1472 2272 -1552 2272
WIRE -1344 2272 -1472 2272
WIRE -1296 2272 -1344 2272
WIRE -1184 2272 -1184 2208
WIRE -1184 2272 -1216 2272
WIRE -1152 2272 -1152 2192
WIRE -1152 2272 -1184 2272
WIRE -1136 2272 -1152 2272
WIRE -976 2272 -1056 2272
WIRE -832 2272 -880 2272
WIRE -368 2272 -368 2240
WIRE -368 2272 -448 2272
WIRE -1728 2288 -1728 2272
WIRE -368 2288 -368 2272
WIRE -448 2304 -448 2272
WIRE -1472 2320 -1472 2272
WIRE -1344 2320 -1344 2272
WIRE -608 2320 -608 2208
WIRE -1728 2400 -1728 2368
WIRE -832 2400 -832 2272
WIRE -832 2400 -880 2400
WIRE -448 2400 -448 2368
WIRE -368 2400 -368 2368
WIRE -368 2400 -448 2400
WIRE -832 2432 -832 2400
WIRE -608 2432 -608 2384
WIRE -608 2432 -832 2432
WIRE -832 2464 -832 2432
WIRE 1536 2480 1392 2480
WIRE 3072 2480 1536 2480
WIRE 3104 2480 3072 2480
WIRE 3216 2480 3184 2480
WIRE 1392 2528 1392 2480
WIRE 1536 2528 1536 2480
WIRE -1184 2576 -1184 2272
WIRE -368 2576 -368 2400
WIRE -368 2576 -1184 2576
WIRE 2032 2576 1872 2576
WIRE 2208 2576 2112 2576
WIRE 2496 2576 2208 2576
WIRE 2752 2576 2496 2576
WIRE 2912 2576 2752 2576
WIRE -368 2592 -368 2576
WIRE 2912 2624 2912 2576
WIRE 3072 2624 3072 2480
WIRE 3104 2624 3072 2624
WIRE 3216 2624 3216 2480
WIRE 3216 2624 3184 2624
WIRE 1392 2656 1392 2608
WIRE 1536 2656 1536 2592
WIRE 1536 2656 1392 2656
WIRE 2496 2656 2496 2576
WIRE 2208 2688 2208 2576
WIRE 2912 2720 2912 2688
WIRE 2752 2736 2752 2576
WIRE -2576 2752 -2608 2752
WIRE -2384 2752 -2496 2752
WIRE -2080 2752 -2384 2752
WIRE 1392 2768 1392 2656
WIRE 2208 2768 2208 2752
WIRE 3072 2768 3072 2624
WIRE 3104 2768 3072 2768
WIRE 3216 2768 3216 2624
WIRE 3216 2768 3184 2768
WIRE 2384 2784 2368 2784
WIRE 2496 2784 2496 2736
WIRE 2496 2784 2448 2784
WIRE 2688 2784 2496 2784
WIRE -2384 2800 -2384 2752
WIRE -2080 2800 -2080 2752
WIRE 2368 2816 2368 2784
WIRE 2496 2816 2496 2784
WIRE -2384 2912 -2384 2880
WIRE -2160 2912 -2384 2912
WIRE -2080 2912 -2080 2864
WIRE 2368 2912 2368 2896
WIRE 2368 2912 1856 2912
WIRE 2496 2912 2496 2880
WIRE 2496 2912 2368 2912
WIRE 2752 2912 2752 2832
WIRE 3072 2912 3072 2768
WIRE 3072 2912 2752 2912
WIRE 3104 2912 3072 2912
WIRE 3216 2912 3216 2768
WIRE 3216 2912 3184 2912
WIRE 3328 2912 3216 2912
WIRE -2384 2928 -2384 2912
WIRE 1392 2928 1392 2848
WIRE 1536 2928 1392 2928
WIRE 1760 2928 1536 2928
WIRE 1888 2944 1856 2944
WIRE 2496 2944 2496 2912
WIRE 1392 2976 1392 2928
WIRE 1536 2976 1536 2928
WIRE 1984 2976 1856 2976
WIRE 2752 2992 2752 2912
WIRE -2384 3040 -2384 2992
WIRE 2368 3040 2368 2912
WIRE 2384 3040 2368 3040
WIRE 2496 3040 2496 3008
WIRE 2496 3040 2448 3040
WIRE 2688 3040 2496 3040
WIRE -2160 3088 -2160 2912
WIRE -2000 3088 -2160 3088
WIRE 1392 3088 1392 3056
WIRE 1536 3088 1536 3040
WIRE 1536 3088 1392 3088
WIRE 2208 3088 2208 3056
WIRE 2496 3088 2496 3040
WIRE 2912 3136 2912 3104
WIRE -2384 3152 -2384 3104
WIRE -2000 3184 -2000 3088
WIRE -1904 3184 -2000 3184
WIRE -1776 3184 -1824 3184
WIRE -1728 3184 -1776 3184
WIRE -1584 3184 -1648 3184
WIRE -2384 3248 -2384 3216
WIRE -2000 3248 -2000 3184
WIRE -1776 3248 -1776 3184
WIRE 1392 3248 1392 3088
WIRE 2048 3248 1904 3248
WIRE 2208 3248 2208 3152
WIRE 2208 3248 2128 3248
WIRE 2496 3248 2496 3168
WIRE 2496 3248 2208 3248
WIRE 2752 3248 2752 3088
WIRE 2752 3248 2496 3248
WIRE 2912 3248 2912 3200
WIRE 2912 3248 2752 3248
WIRE -2384 3344 -2384 3312
WIRE -2384 3440 -2384 3408
WIRE -2160 3440 -2160 3088
WIRE -1904 3440 -2160 3440
WIRE -1776 3440 -1824 3440
WIRE -1728 3440 -1776 3440
WIRE -1584 3440 -1648 3440
WIRE 640 3520 640 2240
WIRE 1392 3520 1392 3312
WIRE 1392 3520 640 3520
WIRE -2384 3536 -2384 3504
WIRE -2160 3536 -2160 3440
WIRE -1776 3536 -1776 3440
FLAG -880 1968 0
FLAG -832 2528 0
FLAG -1472 2400 0
FLAG -1344 2400 0
FLAG -368 2672 0
FLAG -2160 1456 Vp
IOPIN -2160 1456 BiDir
FLAG -2160 1648 Vn
IOPIN -2160 1648 BiDir
FLAG -2160 1840 Vd
IOPIN -2160 1840 BiDir
FLAG -1232 2096 Vp
IOPIN -1232 2096 BiDir
FLAG -1088 1872 Vp
IOPIN -1088 1872 BiDir
FLAG -1584 2096 Vn
IOPIN -1584 2096 BiDir
FLAG -960 2400 Vn
IOPIN -960 2400 BiDir
FLAG -2288 1616 0
FLAG -2288 1776 0
FLAG -2288 1984 0
FLAG -1728 2400 0
FLAG 1504 992 Vp
IOPIN 1504 992 BiDir
FLAG 1840 1184 0
FLAG 1696 1184 0
FLAG 976 1072 0
FLAG 1504 1664 Vn
IOPIN 1504 1664 BiDir
FLAG 1840 1472 0
FLAG 1696 1472 0
FLAG 2112 1472 0
FLAG 2112 1184 0
FLAG 2816 1136 0
FLAG 2816 1520 0
FLAG 3232 1328 0
FLAG 2208 3056 0
FLAG 2208 2768 0
FLAG 2912 2720 0
FLAG 2912 3104 0
FLAG 3328 2912 0
FLAG 1872 2576 Vp
IOPIN 1872 2576 BiDir
FLAG 1904 3248 Vn
IOPIN 1904 3248 BiDir
FLAG 2016 1216 8
IOPIN 2016 1216 BiDir
FLAG 1984 1504 4
IOPIN 1984 1504 BiDir
FLAG 1984 2976 8
IOPIN 1984 2976 BiDir
FLAG 1888 2944 4
IOPIN 1888 2944 BiDir
FLAG -2608 2752 Vp
IOPIN -2608 2752 BiDir
FLAG -2080 2912 0
FLAG -1776 3248 0
FLAG -2160 3536 0
FLAG -2384 3536 0
FLAG -1776 3536 0
FLAG -2000 3248 0
FLAG -1584 3184 bias1
IOPIN -1584 3184 BiDir
FLAG -1584 3440 bias2
IOPIN -1584 3440 BiDir
FLAG -2272 -64 0
FLAG -2624 -704 0
FLAG -1456 368 0
FLAG -1760 368 0
FLAG -2352 -768 Vsup
FLAG -2672 -192 0
FLAG -1344 -80 Vamp
FLAG -576 -576 0
FLAG -1632 368 0
FLAG -1232 96 0
FLAG -1872 -64 Vp
IOPIN -1872 -64 BiDir
FLAG -2576 -320 Tackt
SYMBOL cap -1552 2256 R90
WINDOW 0 0 32 VBottom 2
WINDOW 3 32 32 VTop 2
SYMATTR InstName C34
SYMATTR Value 4.7n
SYMBOL cap -864 1968 R180
WINDOW 0 24 56 Left 2
WINDOW 3 24 8 Left 2
SYMATTR InstName C28
SYMATTR Value 0.1µ
SYMBOL cap -848 2464 R0
WINDOW 3 28 60 Left 2
SYMATTR Value 0.1µ
SYMATTR InstName C41
SYMBOL cap -624 2320 R0
WINDOW 3 31 63 Left 2
SYMATTR Value 10p
SYMATTR InstName C42
SYMBOL res -1488 2304 R0
SYMATTR InstName R48
SYMATTR Value 100
SYMBOL res -1200 2256 R90
WINDOW 0 0 56 VBottom 2
WINDOW 3 32 56 VTop 2
SYMATTR InstName R45
SYMATTR Value 100
SYMBOL res -1360 2304 R0
SYMATTR InstName R49
SYMATTR Value 100
SYMBOL res -1152 2288 R270
WINDOW 0 32 56 VTop 2
WINDOW 3 0 56 VBottom 2
SYMATTR InstName R46
SYMATTR Value 100
SYMBOL res -992 1856 R90
WINDOW 0 0 56 VBottom 2
WINDOW 3 32 56 VTop 2
SYMATTR InstName R36
SYMATTR Value 2.2
SYMBOL res -864 2384 R90
WINDOW 0 0 56 VBottom 2
WINDOW 3 32 56 VTop 2
SYMATTR InstName R50
SYMATTR Value 2.2
SYMBOL res -384 2576 R0
SYMATTR InstName R57
SYMATTR Value 470
SYMBOL res -384 2272 R0
SYMATTR InstName R51
SYMATTR Value 470
SYMBOL cap -464 2304 R0
SYMATTR InstName CR51
SYMATTR Value 10p
SYMBOL diode -1520 2112 R270
WINDOW 0 32 32 VTop 2
WINDOW 3 95 34 VBottom 2
SYMATTR InstName D5.1
SYMATTR Value BAT54XV2T1G
SYMBOL diode -1392 2112 R270
WINDOW 0 32 32 VTop 2
WINDOW 3 -3 81 VBottom 2
SYMATTR InstName D5.2
SYMATTR Value BAT54XV2T1G
SYMBOL voltage -2288 1520 R0
WINDOW 123 0 0 Left 0
WINDOW 39 0 0 Left 0
SYMATTR InstName V3
SYMATTR Value 8
SYMBOL voltage -2288 1680 R0
WINDOW 123 0 0 Left 0
WINDOW 39 0 0 Left 0
SYMATTR InstName V4
SYMATTR Value -4
SYMBOL voltage -2288 1888 R0
WINDOW 123 0 0 Left 0
WINDOW 39 0 0 Left 0
SYMATTR InstName V5
SYMATTR Value 5
SYMBOL voltage -1728 2272 R0
WINDOW 123 0 0 Left 0
WINDOW 39 0 0 Left 0
SYMATTR InstName V7
SYMATTR Value SINE(0V 10V 1MEG 0.5u)
SYMBOL AutoGenerated\\AD8021 -928 2240 M180
SYMATTR InstName U1
SYMBOL cap 1136 1360 R90
WINDOW 0 0 32 VBottom 2
WINDOW 3 32 32 VTop 2
SYMATTR InstName C32
SYMATTR Value 0.1µ
SYMBOL cap 960 976 R0
SYMATTR InstName C23
SYMATTR Value 0.1µ
SYMBOL cap 1680 1104 R0
SYMATTR InstName C29
SYMATTR Value 10µ
SYMBOL cap 1824 1104 R0
SYMATTR InstName C27
SYMATTR Value 0.1µ
SYMBOL cap 1680 1504 R0
SYMATTR InstName C37
SYMATTR Value 10µ
SYMBOL cap 1824 1504 R0
SYMATTR InstName C39
SYMATTR Value 0.1µ
SYMBOL cap 2096 1104 R0
SYMATTR InstName C24
SYMATTR Value 0.1µ
SYMBOL cap 2096 1504 R0
SYMATTR InstName C43
SYMATTR Value 0.1µ
SYMBOL cap 2352 1184 R90
WINDOW 0 0 32 VBottom 2
WINDOW 3 32 32 VTop 2
SYMATTR InstName C30
SYMATTR Value 0.1µ
SYMBOL cap 2352 1440 R90
WINDOW 0 0 32 VBottom 2
WINDOW 3 32 32 VTop 2
SYMATTR InstName C35
SYMATTR Value 0.1µ
SYMBOL cap 2800 1040 R0
SYMATTR InstName C26
SYMATTR Value 10µ
SYMBOL cap 2800 1552 R0
SYMATTR InstName C40
SYMATTR Value 10µ
SYMBOL res 2384 1056 R0
SYMATTR InstName R38
SYMATTR Value 10k
SYMBOL res 2384 1488 R0
SYMATTR InstName R53
SYMATTR Value 10k
SYMBOL res 1968 1648 R90
WINDOW 0 0 56 VBottom 2
WINDOW 3 32 56 VTop 2
SYMATTR InstName R55
SYMATTR Value 2R2
SYMBOL res 1648 1584 R90
WINDOW 0 0 56 VBottom 2
WINDOW 3 32 56 VTop 2
SYMATTR InstName R52
SYMATTR Value 2R2
SYMBOL res 1648 1040 R90
WINDOW 0 0 56 VBottom 2
WINDOW 3 32 56 VTop 2
SYMATTR InstName R33
SYMATTR Value 2R2
SYMBOL res 1136 880 R90
WINDOW 0 0 56 VBottom 2
WINDOW 3 32 56 VTop 2
SYMATTR InstName R27
SYMATTR Value 470
SYMBOL res 1680 880 R90
WINDOW 0 0 56 VBottom 2
WINDOW 3 32 56 VTop 2
SYMATTR InstName R28
SYMATTR Value 470
SYMBOL res 1968 976 R90
WINDOW 0 0 56 VBottom 2
WINDOW 3 32 56 VTop 2
SYMATTR InstName R31
SYMATTR Value 2R2
SYMBOL diode 2384 1232 R0
SYMATTR InstName D6.1
SYMATTR Value BAT54XV2T1G
SYMBOL diode 2384 1360 R0
SYMATTR InstName D6.2
SYMATTR Value BAT54XV2T1G
SYMBOL npn 2592 1152 R0
SYMATTR InstName Q8
SYMATTR Value BD139
SYMBOL pnp 2592 1408 R0
SYMATTR InstName Q10
SYMATTR Value BD140
SYMBOL res 3104 880 R90
WINDOW 0 0 56 VBottom 2
WINDOW 3 32 56 VTop 2
SYMATTR InstName R29
SYMATTR Value 39
SYMBOL res 3104 1024 R90
WINDOW 0 0 56 VBottom 2
WINDOW 3 37 63 VTop 2
SYMATTR InstName R34
SYMATTR Value 39
SYMBOL res 3104 1168 R90
WINDOW 0 0 56 VBottom 2
WINDOW 3 32 56 VTop 2
SYMATTR InstName R40
SYMATTR Value 39
SYMBOL res 3104 1312 R90
WINDOW 0 0 56 VBottom 2
WINDOW 3 32 56 VTop 2
SYMATTR InstName R43
SYMATTR Value 39
SYMBOL AutoGenerated\\AD8017 1904 1360 M180
SYMATTR InstName U2.1
SYMBOL res 2256 1216 R0
SYMATTR InstName R1testttt
SYMATTR Value 1Meg
SYMBOL res 1376 2512 R0
SYMATTR InstName R35
SYMATTR Value 220
SYMBOL res 1376 2752 R0
SYMATTR InstName R42
SYMATTR Value 220
SYMBOL res 1376 2960 R0
SYMATTR InstName R47
SYMATTR Value 220
SYMBOL cap 2192 2688 R0
SYMATTR InstName C25
SYMATTR Value 0.1µ
SYMBOL cap 2192 3088 R0
SYMATTR InstName C44
SYMATTR Value 0.1µ
SYMBOL cap 2448 2768 R90
WINDOW 0 0 32 VBottom 2
WINDOW 3 32 32 VTop 2
SYMATTR InstName C31
SYMATTR Value 0.1µ
SYMBOL cap 2448 3024 R90
WINDOW 0 0 32 VBottom 2
WINDOW 3 32 32 VTop 2
SYMATTR InstName C36
SYMATTR Value 0.1µ
SYMBOL cap 2896 2624 R0
SYMATTR InstName C126
SYMATTR Value 10µ
SYMBOL cap 2896 3136 R0
SYMATTR InstName C140
SYMATTR Value 10µ
SYMBOL res 2480 2640 R0
SYMATTR InstName R39
SYMATTR Value 10k
SYMBOL res 2480 3072 R0
SYMATTR InstName R54
SYMATTR Value 10k
SYMBOL diode 2480 2816 R0
SYMATTR InstName D7.1
SYMATTR Value BAT54XV2T1G
SYMBOL diode 2480 2944 R0
SYMATTR InstName D7.2
SYMATTR Value BAT54XV2T1G
SYMBOL npn 2688 2736 R0
SYMATTR InstName Q7
SYMATTR Value BD139
SYMBOL pnp 2688 2992 R0
SYMATTR InstName Q9
SYMATTR Value BD140
SYMBOL res 3200 2464 R90
WINDOW 0 0 56 VBottom 2
WINDOW 3 32 56 VTop 2
SYMATTR InstName R30
SYMATTR Value 39
SYMBOL res 3200 2608 R90
WINDOW 0 0 56 VBottom 2
WINDOW 3 37 63 VTop 2
SYMATTR InstName R37
SYMATTR Value 39
SYMBOL res 3200 2752 R90
WINDOW 0 0 56 VBottom 2
WINDOW 3 32 56 VTop 2
SYMATTR InstName R41
SYMATTR Value 39
SYMBOL res 3200 2896 R90
WINDOW 0 0 56 VBottom 2
WINDOW 3 32 56 VTop 2
SYMATTR InstName R44
SYMATTR Value 39
SYMBOL res 2352 2800 R0
SYMATTR InstName R1testt
SYMATTR Value 1Meg
SYMBOL cap 1520 2976 R0
SYMATTR InstName C142
SYMATTR Value 0.1µ
SYMBOL cap 1376 3248 R0
SYMATTR InstName C38
SYMATTR Value 0.1µ
SYMBOL res 2128 2560 R90
WINDOW 0 0 56 VBottom 2
WINDOW 3 32 56 VTop 2
SYMATTR InstName R32
SYMATTR Value 2R2
SYMBOL res 2144 3232 R90
WINDOW 0 0 56 VBottom 2
WINDOW 3 32 56 VTop 2
SYMATTR InstName R56
SYMATTR Value 2R2
SYMBOL AutoGenerated\\AD8017 1808 2944 M180
SYMATTR InstName U2
SYMBOL cap 1520 2528 R0
SYMATTR InstName C141
SYMATTR Value 10p
SYMBOL res -2480 2736 R90
WINDOW 0 0 56 VBottom 2
WINDOW 3 32 56 VTop 2
SYMATTR InstName R1
SYMATTR Value 4k7
SYMBOL res -1808 3168 R90
WINDOW 0 0 56 VBottom 2
WINDOW 3 32 56 VTop 2
SYMATTR InstName R14
SYMATTR Value 120
SYMBOL res -1632 3168 R90
WINDOW 0 0 56 VBottom 2
WINDOW 3 32 56 VTop 2
SYMATTR InstName R15
SYMATTR Value 4k7
SYMBOL res -1808 3424 R90
WINDOW 0 0 56 VBottom 2
WINDOW 3 32 56 VTop 2
SYMATTR InstName R17
SYMATTR Value 120
SYMBOL res -1632 3424 R90
WINDOW 0 0 56 VBottom 2
WINDOW 3 32 56 VTop 2
SYMATTR InstName R18
SYMATTR Value 4k7
SYMBOL res -2400 2784 R0
SYMATTR InstName R13
SYMATTR Value 120
SYMBOL cap -2096 2800 R0
SYMATTR InstName C1
SYMATTR Value 0.1µ
SYMBOL diode -2400 2928 R0
SYMATTR InstName D9.1
SYMATTR Value BAT54XV2T1G
SYMBOL diode -2400 3040 R0
SYMATTR InstName D9.2
SYMATTR Value BAT54XV2T1G
SYMBOL diode -2400 3152 R0
SYMATTR InstName D2.1
SYMATTR Value BAT54XV2T1G
SYMBOL diode -2400 3248 R0
SYMATTR InstName D2.2
SYMATTR Value BAT54XV2T1G
SYMBOL diode -2400 3344 R0
SYMATTR InstName D4.1
SYMATTR Value BAT54XV2T1G
SYMBOL diode -2400 3440 R0
SYMATTR InstName D4.2
SYMATTR Value BAT54XV2T1G
SYMBOL voltage -2624 -848 R0
WINDOW 123 0 0 Left 0
WINDOW 39 0 0 Left 0
SYMATTR InstName V1
SYMATTR Value 56
SYMBOL res -2448 -752 R0
SYMATTR InstName R2
SYMATTR Value 330
SYMATTR SpiceLine pwr=0.5
SYMBOL pmos -1680 -400 M180
SYMATTR InstName Q2
SYMATTR Value RSQ035P03
SYMBOL nmos -1680 48 R0
SYMATTR InstName Q5A
SYMATTR Value BSC340N08NS3
SYMBOL res -1456 -784 R0
SYMATTR InstName R3
SYMATTR Value 2.2
SYMBOL res -1344 -784 R0
SYMATTR InstName R4
SYMATTR Value 2.2
SYMBOL res -1232 -784 R0
SYMATTR InstName R5
SYMATTR Value 2.2
SYMBOL res -1136 -784 R0
SYMATTR InstName R6
SYMATTR Value 2.2
SYMBOL res -1040 -784 R0
SYMATTR InstName R7
SYMATTR Value 2.2
SYMBOL res -960 -784 R0
SYMATTR InstName R8
SYMATTR Value 2.2
SYMBOL res -864 -784 R0
SYMATTR InstName R9
SYMATTR Value 2.2
SYMBOL res -752 -784 R0
SYMATTR InstName R10
SYMATTR Value 2.2
SYMBOL res -656 -784 R0
SYMATTR InstName R11
SYMATTR Value 2.2
SYMBOL res -560 -784 R0
SYMATTR InstName R12
SYMATTR Value 2.2
SYMBOL cap -1456 -640 R0
SYMATTR InstName C2
SYMATTR Value 0.1µ
SYMBOL cap -1344 -640 R0
SYMATTR InstName C3
SYMATTR Value 0.1µ
SYMBOL cap -1232 -640 R0
SYMATTR InstName C4
SYMATTR Value 0.1µ
SYMBOL cap -1136 -640 R0
SYMATTR InstName C5
SYMATTR Value 0.1µ
SYMBOL cap -1040 -640 R0
SYMATTR InstName C6
SYMATTR Value 0.1µ
SYMBOL cap -960 -640 R0
SYMATTR InstName C7
SYMATTR Value 0.1µ
SYMBOL cap -864 -640 R0
SYMATTR InstName C8
SYMATTR Value 0.1µ
SYMBOL cap -752 -640 R0
SYMATTR InstName C9
SYMATTR Value 0.1µ
SYMBOL cap -656 -640 R0
SYMATTR InstName C10
SYMATTR Value 0.1µ
SYMBOL cap -560 -640 R0
SYMATTR InstName C11
SYMATTR Value 0.1µ
SYMBOL diode -1904 256 R180
WINDOW 0 24 64 Left 2
WINDOW 3 24 0 Left 2
SYMATTR InstName D1
SYMATTR Value BAT54XV2T1G
SYMBOL res -2144 32 R0
SYMATTR InstName R58
SYMATTR Value 220
SYMATTR SpiceLine pwr=0.5
SYMBOL res -2016 32 R0
SYMATTR InstName R59
SYMATTR Value 220
SYMATTR SpiceLine pwr=0.5
SYMBOL res -1888 32 R0
SYMATTR InstName R22
SYMATTR Value 220
SYMATTR SpiceLine pwr=0.5
SYMBOL res -2240 272 R90
WINDOW 0 0 56 VBottom 2
WINDOW 3 32 56 VTop 2
SYMATTR InstName R25
SYMATTR Value 4700
SYMBOL res -2288 -224 R0
SYMATTR InstName R19
SYMATTR Value 120
SYMBOL res -1472 16 R0
SYMATTR InstName R23
SYMATTR Value 2.2
SYMBOL cap -1472 160 R0
SYMATTR InstName C18
SYMATTR Value 1n
SYMBOL npn -2336 -624 R0
SYMATTR InstName Q1
SYMATTR Value BD139
SYMBOL npn -2496 -368 R0
SYMATTR InstName Q4
SYMATTR Value BD139
SYMBOL npn -1824 240 R0
SYMATTR InstName Q6
SYMATTR Value BD139
SYMBOL diode -2336 -496 R90
WINDOW 0 0 32 VBottom 2
WINDOW 3 32 32 VTop 2
SYMATTR InstName D2
SYMATTR Value BAT54XV2T1G
SYMBOL voltage -2672 -304 R0
WINDOW 123 0 0 Left 0
WINDOW 39 0 0 Left 0
WINDOW 3 -240 -45 Left 2
SYMATTR Value PULSE(0V 20V 0.5u 0 0 0.5u 1u 3)
SYMATTR InstName Vtackt1
SYMBOL res -1248 -16 R0
SYMATTR InstName Rtest1
SYMATTR Value 1
TEXT -768 2032 Left 2 !.tran 5us
TEXT -768 1992 Left 2 !.lib C:\\Users\\msaya\\Documents\\Github\\Amplifier\\libs\\Bib.LIB
TEXT -1736 -496 Left 2 ;G
TEXT -1728 112 Left 2 ;G
TEXT -1648 -96 Left 2 ;D
TEXT -1616 216 Left 2 ;S
TEXT -1624 -632 Left 2 ;S
