Version 4
SHEET 1 4920 3300
WIRE -2160 1456 -2288 1456
WIRE -2288 1536 -2288 1456
WIRE -2160 1648 -2288 1648
WIRE -2288 1696 -2288 1648
WIRE -2160 1840 -2288 1840
WIRE -992 1872 -1008 1872
WIRE -880 1872 -992 1872
WIRE -2288 1904 -2288 1840
WIRE -880 1904 -880 1872
WIRE -1520 2096 -1584 2096
WIRE -1424 2096 -1456 2096
WIRE -1392 2096 -1424 2096
WIRE -1232 2096 -1328 2096
WIRE -1040 2192 -1152 2192
WIRE -1424 2208 -1424 2096
WIRE -1184 2208 -1424 2208
WIRE -992 2208 -992 1872
WIRE -960 2208 -992 2208
WIRE -960 2224 -960 2208
WIRE -1040 2240 -1040 2192
WIRE -976 2240 -1040 2240
WIRE -368 2240 -848 2240
WIRE -192 2240 -368 2240
WIRE -848 2256 -848 2240
WIRE -848 2256 -912 2256
WIRE -1616 2272 -1728 2272
WIRE -1472 2272 -1552 2272
WIRE -1344 2272 -1472 2272
WIRE -1296 2272 -1344 2272
WIRE -1184 2272 -1184 2208
WIRE -1184 2272 -1216 2272
WIRE -1136 2272 -1184 2272
WIRE -976 2272 -1056 2272
WIRE -192 2272 -192 2240
WIRE -1728 2288 -1728 2272
WIRE -608 2288 -928 2288
WIRE -368 2288 -368 2240
WIRE -1472 2320 -1472 2272
WIRE -1344 2320 -1344 2272
WIRE -960 2320 -960 2288
WIRE -832 2320 -960 2320
WIRE -608 2320 -608 2288
WIRE -1728 2400 -1728 2368
WIRE -832 2400 -832 2320
WIRE -832 2400 -880 2400
WIRE -192 2400 -192 2352
WIRE -832 2432 -832 2400
WIRE -608 2432 -608 2384
WIRE -608 2432 -832 2432
WIRE -832 2464 -832 2432
WIRE -1152 2576 -1152 2192
WIRE -368 2576 -368 2368
WIRE -368 2576 -1152 2576
WIRE -368 2592 -368 2576
FLAG -880 1968 0
FLAG -832 2528 0
FLAG -1472 2400 0
FLAG -1344 2400 0
FLAG -368 2672 0
FLAG -2160 1456 Vp
IOPIN -2160 1456 BiDir
FLAG -2160 1648 Vn
IOPIN -2160 1648 BiDir
FLAG -2160 1840 Vd
IOPIN -2160 1840 BiDir
FLAG -1232 2096 Vp
IOPIN -1232 2096 BiDir
FLAG -1088 1872 Vp
IOPIN -1088 1872 BiDir
FLAG -1584 2096 Vn
IOPIN -1584 2096 BiDir
FLAG -960 2400 Vn
IOPIN -960 2400 BiDir
FLAG -2288 1616 0
FLAG -2288 1776 0
FLAG -2288 1984 0
FLAG -1728 2400 0
FLAG -192 2400 0
SYMBOL cap -1552 2256 R90
WINDOW 0 0 32 VBottom 2
WINDOW 3 32 32 VTop 2
SYMATTR InstName C34
SYMATTR Value 4.7n
SYMBOL cap -864 1968 R180
WINDOW 0 24 56 Left 2
WINDOW 3 24 8 Left 2
SYMATTR InstName C28
SYMATTR Value 0.1µ
SYMBOL cap -848 2464 R0
WINDOW 3 28 60 Left 2
SYMATTR Value 0.1µ
SYMATTR InstName C41
SYMBOL cap -624 2320 R0
WINDOW 3 31 63 Left 2
SYMATTR Value 10p
SYMATTR InstName C42
SYMBOL res -1488 2304 R0
SYMATTR InstName R48
SYMATTR Value 100
SYMBOL res -1200 2256 R90
WINDOW 0 0 56 VBottom 2
WINDOW 3 32 56 VTop 2
SYMATTR InstName R45
SYMATTR Value 100
SYMBOL res -1360 2304 R0
SYMATTR InstName R49
SYMATTR Value 100
SYMBOL res -1152 2288 R270
WINDOW 0 32 56 VTop 2
WINDOW 3 0 56 VBottom 2
SYMATTR InstName R46
SYMATTR Value 100
SYMBOL res -992 1856 R90
WINDOW 0 0 56 VBottom 2
WINDOW 3 32 56 VTop 2
SYMATTR InstName R36
SYMATTR Value 2.2
SYMBOL res -864 2384 R90
WINDOW 0 0 56 VBottom 2
WINDOW 3 32 56 VTop 2
SYMATTR InstName R50
SYMATTR Value 2.2
SYMBOL res -384 2576 R0
SYMATTR InstName R57
SYMATTR Value 470
SYMBOL res -384 2272 R0
SYMATTR InstName R51
SYMATTR Value 470
SYMBOL diode -1520 2112 R270
WINDOW 0 32 32 VTop 2
WINDOW 3 95 34 VBottom 2
SYMATTR InstName D5.1
SYMATTR Value BAT54XV2T1G
SYMBOL diode -1392 2112 R270
WINDOW 0 32 32 VTop 2
WINDOW 3 -3 81 VBottom 2
SYMATTR InstName D5.2
SYMATTR Value BAT54XV2T1G
SYMBOL voltage -2288 1520 R0
WINDOW 123 0 0 Left 0
WINDOW 39 0 0 Left 0
SYMATTR InstName V3
SYMATTR Value 8
SYMBOL voltage -2288 1680 R0
WINDOW 123 0 0 Left 0
WINDOW 39 0 0 Left 0
SYMATTR InstName V4
SYMATTR Value -5
SYMBOL voltage -2288 1888 R0
WINDOW 123 0 0 Left 0
WINDOW 39 0 0 Left 0
SYMATTR InstName V5
SYMATTR Value 5
SYMBOL voltage -1728 2272 R0
WINDOW 123 0 0 Left 0
WINDOW 39 0 0 Left 0
SYMATTR InstName V7
SYMATTR Value SINE(0V 2V 1MEG 0.5u)
SYMBOL res -208 2256 R0
SYMATTR InstName Rtest1
SYMATTR Value 1k
SYMBOL OpAmps\\AD8029 -944 2256 R0
SYMATTR InstName U2
TEXT -768 2032 Left 2 !.tran 0 5u 0
TEXT -768 1992 Left 2 !.lib C:\\Users\\msaya\\Documents\\Github\\Amplifier\\libs\\Bib.LIB
