**************************************
*      Model Generated by MODPEX     *
*Copyright(c) Symmetry Design Systems*
*         All Rights Reserved        *
*    UNPUBLISHED LICENSED SOFTWARE   *
*   Contains Proprietary Information *
*      Which is The Property of      *
*     SYMMETRY OR ITS LICENSORS      *
*Commercial Use or Resale Restricted *
*   by Symmetry License Agreement    *
**************************************
* Model generated on Sep 18, 18
* MODEL FORMAT: PSpice
.MODEL Dbat54xv2t1g d
+IS=1.91828e-08 RS=0.708696 N=0.984721 EG=0.705057
+XTI=0.5 BV=37.2 IBV=1e-05 CJO=1.4099e-11
+VJ=0.493605 M=0.459988 FC=0.5 TT=2.59685e-09
+KF=0 AF=1


